1DMP
  DSViewer          3D                             0

 40 44  0  0  0  0  0  0  0  0999 V2000
   -8.8900   15.3220   27.7390 C   0  0
   -8.4080   14.2130   27.6200 O   0  0
   -8.6090   16.1690   26.7400 N   0  0
   -8.0330   15.5860   25.4850 C   0  0
   -8.6780   17.6490   26.9140 C   0  0  1  0  0  0
  -10.0180   18.2720   27.1610 C   0  0  2  0  0  0
   -9.7860   19.6250   26.9240 O   0  0
  -10.5910   18.0230   28.5350 C   0  0  1  0  0  0
  -11.8230   18.6470   28.5540 O   0  0
  -10.8300   16.5590   28.8550 C   0  0  2  0  0  0
   -9.4130   14.8750   30.0960 C   0  0
   -9.6360   15.6470   28.8450 N   0  0
   -8.7170   16.0040   24.2210 C   0  0
  -10.1160   15.9180   24.1240 C   0  0
  -10.8140   16.3270   22.9750 C   0  0
  -10.0790   16.8490   21.9070 C   0  0
   -8.6690   16.9590   21.9960 C   0  0
   -7.9810   17.6690   20.9750 N   0  0
   -7.9820   16.5160   23.1460 C   0  0
   -7.5250   18.1310   27.8140 C   0  0
   -6.2440   18.1380   26.9920 C   0  0
   -5.2230   17.1850   27.2320 C   0  0
   -4.0590   17.1780   26.4540 C   0  0
   -3.9210   18.1180   25.4200 C   0  0
   -4.9270   19.0750   25.1520 C   0  0
   -6.0910   19.0880   25.9470 C   0  0
  -12.0200   15.8570   28.1040 C   0  0
  -12.5410   14.5960   28.7910 C   0  0
  -13.3710   14.7000   29.9260 C   0  0
  -13.7780   13.5480   30.6210 C   0  0
  -13.3570   12.2800   30.1720 C   0  0
  -12.5360   12.1470   29.0280 C   0  0
  -12.1320   13.3120   28.3390 C   0  0
   -9.5100   15.5830   31.4300 C   0  0
  -10.4550   15.1340   32.3800 C   0  0
  -10.4860   15.6970   33.6690 C   0  0
  -11.4110   15.2210   34.6490 N   0  0
   -9.5810   16.7250   34.0020 C   0  0
   -8.6410   17.2010   33.0480 C   0  0
   -8.6070   16.6220   31.7630 C   0  0
  1  2  2  0  0  0
  1  3  1  0  0  0
  1 12  1  0  0  0
  3  4  1  0  0  0
  3  5  1  0  0  0
  4 13  1  0  0  0
  5  6  1  0  0  0
  5 20  1  0  0  0
  6  7  1  0  0  0
  6  8  1  0  0  0
  8  9  1  0  0  0
  8 10  1  0  0  0
 10 12  1  0  0  0
 10 27  1  0  0  0
 11 12  1  0  0  0
 11 34  1  0  0  0
 13 14  4  0  0  0
 13 19  4  0  0  0
 14 15  4  0  0  0
 15 16  4  0  0  0
 16 17  4  0  0  0
 17 18  1  0  0  0
 17 19  4  0  0  0
 20 21  1  0  0  0
 21 22  4  0  0  0
 21 26  4  0  0  0
 22 23  4  0  0  0
 23 24  4  0  0  0
 24 25  4  0  0  0
 25 26  4  0  0  0
 27 28  1  0  0  0
 28 29  4  0  0  0
 28 33  4  0  0  0
 29 30  4  0  0  0
 30 31  4  0  0  0
 31 32  4  0  0  0
 32 33  4  0  0  0
 34 35  4  0  0  0
 34 40  4  0  0  0
 35 36  4  0  0  0
 36 37  1  0  0  0
 36 38  4  0  0  0
 38 39  4  0  0  0
 39 40  4  0  0  0
M  END
> <Resolution>
2

$$$$
