1BIM
  DSViewer          3D                             0

 48 51  0  0  0  0  0  0  0  0999 V2000
   43.0340   61.0890   48.8730 C   0  0
   43.6860   62.6050   47.0220 C   0  0
   41.5260   61.4670   46.9880 C   0  0
   41.3470   61.9620   45.9400 O   0  0
   42.6860   61.7270   47.6150 N   0  0
   39.5920   60.1220   46.4970 N   0  0
   38.6110   60.9360   46.0590 C   0  0
   38.4800   62.0600   46.4600 O   0  0
   40.4930   60.5570   47.5680 C   0  0
   39.6150   58.7620   46.0070 C   0  0  1  0  0  0
   41.0300   58.5410   45.4730 C   0  0
   39.1830   57.8390   47.1730 C   0  0
   39.9930   56.8620   47.5970 C   0  0
   38.0190   58.0380   47.8010 C   0  0
   39.6280   56.0880   48.6330 C   0  0
   37.6500   57.2460   48.8200 C   0  0
   38.4480   56.2730   49.2350 C   0  0
   36.1270   60.9350   43.2480 C   0  0
   36.4230   60.0650   42.4830 O   0  0
   37.2820   61.5240   44.0390 C   0  0  1  0  0  0
   37.6760   60.3910   44.9980 C   0  0
   38.4440   61.7430   43.0450 C   0  0
   38.2710   63.1290   42.3880 C   0  0
   37.8130   63.2570   41.1440 C   0  0
   37.6750   64.9940   40.7120 S   0  0
   38.2670   65.3290   42.3370 C   0  0
   38.5120   64.2890   43.0470 N   0  0
   38.3810   66.5610   42.7250 N   0  0
   32.8300   61.7010   41.9250 C   0  0  1  0  0  0
   33.6700   60.6620   42.7430 C   0  0  2  0  0  0
   32.7340   59.9840   43.8030 C   0  0
   33.5630   59.1690   44.8190 C   0  0
   32.9620   59.2690   46.2580 C   0  0
   33.7150   58.3510   47.2640 C   0  0
   33.6750   56.8850   46.7780 C   0  0
   34.2870   56.7900   45.3440 C   0  0
   33.5140   57.7030   44.3480 C   0  0
   34.8120   61.2980   43.4700 N   0  0
   32.5860   62.8260   42.7790 O   0  0
   32.8920   62.1410   38.3470 N   0  0
   33.2300   61.3470   39.4030 C   0  0
   33.3560   60.0740   39.3260 O   0  0
   33.6080   62.1480   40.6410 C   0  0  1  0  0  0
   33.2880   63.6170   40.1620 C   0  0
   32.8100   63.5250   38.6600 C   0  0
   32.4770   61.6360   37.0810 C   0  0
   31.3000   63.8770   38.4600 C   0  0
   33.6980   64.4360   37.7510 C   0  0
  1  5  1  0  0  0
  2  5  1  0  0  0
  3  4  2  0  0  0
  3  5  1  0  0  0
  3  9  1  0  0  0
  6  7  1  0  0  0
  6  9  1  0  0  0
  6 10  1  0  0  0
  7  8  2  0  0  0
  7 21  1  0  0  0
 10 11  1  0  0  0
 10 12  1  0  0  0
 12 13  4  0  0  0
 12 14  4  0  0  0
 13 15  4  0  0  0
 14 16  4  0  0  0
 15 17  4  0  0  0
 16 17  4  0  0  0
 18 19  2  0  0  0
 18 20  1  0  0  0
 18 38  1  0  0  0
 20 21  1  0  0  0
 20 22  1  0  0  0
 22 23  1  0  0  0
 23 24  4  0  0  0
 23 27  4  0  0  0
 24 25  4  0  0  0
 25 26  4  0  0  0
 26 27  4  0  0  0
 26 28  1  0  0  0
 29 30  1  0  0  0
 29 39  1  0  0  0
 29 43  1  0  0  0
 30 31  1  0  0  0
 30 38  1  0  0  0
 31 32  1  0  0  0
 32 33  1  0  0  0
 32 37  1  0  0  0
 33 34  1  0  0  0
 34 35  1  0  0  0
 35 36  1  0  0  0
 36 37  1  0  0  0
 40 41  1  0  0  0
 40 45  1  0  0  0
 40 46  1  0  0  0
 41 42  2  0  0  0
 41 43  1  0  0  0
 43 44  1  0  0  0
 44 45  1  0  0  0
 45 47  1  0  0  0
 45 48  1  0  0  0
M  END
> <Resolution>
2.8

$$$$
