1C2T
  DSViewer          3D                             0

 53 55  0  0  0  0  0  0  0  0999 V2000
   22.6450    1.3780   22.6840 N   0  0
   23.5780    1.7760   21.8810 C   0  0
   24.7810    1.1620   21.9350 N   0  0
   23.3540    2.8440   20.9080 N   0  0
   22.1560    3.5160   20.8130 C   0  0
   22.0380    4.4070   19.9690 O   0  0
   21.0200    3.0750   21.7390 C   0  0
   19.7440    3.6910   21.7610 C   0  0
   18.7610    3.2240   22.6610 C   0  0
   19.0640    2.1590   23.5580 C   0  0
   20.3360    1.5440   23.5640 C   0  0
   21.3330    2.0050   22.6900 C   0  0
   17.3860    3.8730   22.6970 C   0  0
   17.0760    5.2290   23.4900 C   0  0  1  0  0  0
   19.1120    5.9180   27.4610 C   0  0
   18.6740    4.6170   27.0680 C   0  0
   18.0440    4.3950   25.8230 C   0  0
   17.8260    5.4660   24.9030 C   0  0
   18.2710    6.7800   25.2970 C   0  0
   18.8970    6.9940   26.5500 C   0  0
   19.7660    6.1610   28.8250 C   0  0
   20.4580    7.1780   29.0420 O   0  0
   19.5400    5.2470   29.8180 N   0  0
   20.0150    5.2780   31.2390 C   0  0  1  0  0  0
   21.5710    5.2910   31.2930 C   0  0
   22.3330    3.9350   31.2870 C   0  0
   21.4860    2.6740   31.4900 C   0  0
   20.8220    2.1320   30.5980 O   0  0
   21.5550    2.2140   32.7660 O   0  0
   19.3900    6.3820   32.1930 C   0  0
   19.5380    7.6070   32.0200 O   0  0
   18.6560    5.8650   33.2430 O   0  0
   16.8990    6.5230   22.6640 C   0  0
   16.0850    7.3140   23.1410 O   0  0
   16.8170    6.4520   21.4390 O   0  0
    8.2680    5.8590   22.1120 C   0  0  1  0  0  0
    7.7190    7.1400   21.8060 O   0  0
    9.7310    5.6910   21.6820 C   0  0  1  0  0  0
   10.1440    6.4300   20.5360 O   0  0
   10.5370    6.1810   22.8560 C   0  0  1  0  0  0
    9.7330    5.9310   23.9850 O   0  0
    8.3710    5.7970   23.6250 C   0  0  2  0  0  0
    7.8530    4.4740   24.1700 C   0  0
    6.7820    4.0150   23.3580 O   0  0
   11.7250    5.4010   23.0750 N   0  0
   12.8990    5.8180   23.4710 C   0  0
   13.1630    7.0110   23.6680 O   0  0
   13.9440    4.7490   23.6740 C   0  0
   14.7250    4.7240   24.9390 N   0  0
    6.0260    2.7210   23.6640 P   0  0
    6.3610    1.9670   22.3190 O   0  5
    4.4510    3.0210   23.8080 O   0  5
    6.5070    2.0670   24.8360 O   0  0
  1  2  2  0  0  0
  1 12  1  0  0  0
  2  3  1  0  0  0
  2  4  1  0  0  0
  4  5  1  0  0  0
  5  6  2  0  0  0
  5  7  1  0  0  0
  7  8  4  0  0  0
  7 12  4  0  0  0
  8  9  4  0  0  0
  9 10  4  0  0  0
  9 13  1  0  0  0
 10 11  4  0  0  0
 11 12  4  0  0  0
 13 14  1  0  0  0
 14 18  1  0  0  0
 14 33  1  0  0  0
 15 16  4  0  0  0
 15 20  4  0  0  0
 15 21  1  0  0  0
 16 17  4  0  0  0
 17 18  4  0  0  0
 18 19  4  0  0  0
 19 20  4  0  0  0
 21 22  2  0  0  0
 21 23  1  0  0  0
 23 24  1  0  0  0
 24 25  1  0  0  0
 24 30  1  0  0  0
 25 26  1  0  0  0
 26 27  1  0  0  0
 27 28  2  0  0  0
 27 29  1  0  0  0
 30 31  2  0  0  0
 30 32  1  0  0  0
 33 34  1  0  0  0
 33 35  1  0  0  0
 36 37  1  0  0  0
 36 38  1  0  0  0
 36 42  1  0  0  0
 38 39  1  0  0  0
 38 40  1  0  0  0
 40 41  1  0  0  0
 40 45  1  0  0  0
 41 42  1  0  0  0
 42 43  1  0  0  0
 43 44  1  0  0  0
 44 50  1  0  0  0
 45 46  1  0  0  0
 46 47  2  0  0  0
 46 48  1  0  0  0
 48 49  1  0  0  0
 50 51  1  0  0  0
 50 52  1  0  0  0
 50 53  2  0  0  0
M  CHG  2  51  -1  52  -1
M  END
> <Resolution>
2.1

$$$$
