1DY9
  DSViewer          3D                             0

 35 34  0  0  0  0  0  0  0  0999 V2000
   38.2720   44.0810    9.4070 O   0  0
   39.3410   43.5470    9.6670 C   0  0
   39.6910   42.2820    9.3610 O   0  0
   38.8440   41.3720    8.6540 C   0  0
   39.5170   39.9850    8.7360 C   0  0
   37.4740   41.2690    9.3420 C   0  0
   38.6570   41.7380    7.1730 C   0  0
   40.3700   44.1680   10.3130 N   0  0
   40.2980   45.5580   10.7390 C   0  0  2  0  0  0
   41.0360   46.3810    9.6400 C   0  0
   42.2680   46.3660    9.4890 O   0  0
   40.8790   45.8780   12.1380 C   0  0
   40.0040   46.8710   12.9630 C   0  0
   40.2880   46.7020   14.4850 C   0  0
   41.4590   46.6650   14.8560 O   0  0
   39.4470   46.1010   15.1470 O   0  0
   40.1820   47.1580    8.8820 N   0  0
   40.6040   47.7940    7.6250 C   0  0  2  0  0  0
   41.7600   48.7000    8.0490 C   0  0
   41.7050   49.3320    9.1080 O   0  0
   39.4870   48.5930    6.9820 C   0  0
   38.2900   47.7680    6.4660 C   0  0
   37.1860   48.6190    5.8140 C   0  0
   38.7760   46.6940    5.4920 C   0  0
   42.8920   48.5620    7.3140 N   0  0
   44.2030   49.0740    7.5930 C   0  0  1  0  0  0
   44.5720   50.2300    6.5330 C   0  0  1  0  0  0
   43.3200   50.9200    6.2350 O   0  0
   44.6350   49.7010    8.8900 C   0  0
   45.2130   48.7550    9.9910 C   0  0
   45.3000   47.4950    9.5400 F   0  0
   44.3880   48.7620   11.0640 F   0  0
   45.4330   51.2990    7.3710 C   0  0
   44.8330   51.9470    8.2380 O   0  0
   46.2230   51.9700    6.7010 O   0  0
  1  2  2  0  0  0
  2  3  1  0  0  0
  2  8  1  0  0  0
  3  4  1  0  0  0
  4  5  1  0  0  0
  4  6  1  0  0  0
  4  7  1  0  0  0
  8  9  1  0  0  0
  9 10  1  0  0  0
  9 12  1  0  0  0
 10 11  2  0  0  0
 10 17  1  0  0  0
 12 13  1  0  0  0
 13 14  1  0  0  0
 14 15  1  0  0  0
 14 16  1  0  0  0
 17 18  1  0  0  0
 18 19  1  0  0  0
 18 21  1  0  0  0
 19 20  2  0  0  0
 19 25  1  0  0  0
 21 22  1  0  0  0
 22 23  1  0  0  0
 22 24  1  0  0  0
 25 26  1  0  0  0
 26 27  1  0  0  0
 26 29  1  0  0  0
 27 28  1  0  0  0
 27 33  1  0  0  0
 29 30  1  0  0  0
 30 31  1  0  0  0
 30 32  1  0  0  0
 33 34  1  0  0  0
 33 35  1  0  0  0
M  END
> <Resolution>
2.1

$$$$
